/*---------------------------------------------------------------------------*\
| =========                 |                                                 |
| \\      /  F ield         | OpenFOAM: The Open Source CFD Toolbox           |
|  \\    /   O peration     | Version:  1.3                                   |
|   \\  /    A nd           | Web:      http://www.openfoam.org               |
|    \\/     M anipulation  |                                                 |
\*---------------------------------------------------------------------------*/
FoamFile
{
    version         2.0;
    format          ascii;
    location        "system";
    class           dictionary;
    object          decomposeParDict;
}
// * * * * * * * * * * * * * * * * * * * * * * * * * * * * * * * * * * * * * //

numberOfSubdomains  12;
	
// preservePatches (inlet);
// preserveFaceZones (heater solid1 solid3);

 method          simple;
// method          hierarchical;
// method          metis;
// method          manual;
//method          scotch;

simpleCoeffs
{
    n           (3 2 2);
    delta       0.001;
}

hierarchicalCoeffs
{
    n           (2 2 1);
    delta       0.001;
    order       xyz;
}

metisCoeffs
{
 /*
    processorWeights
    (
        1
        1
        1
        1
    );
  */
}

scotchCoeffs
{
}

manualCoeffs
{
    dataFile    "decompositionData";
}



// ************************************************************************* //
