/*--------------------------------*- C++ -*----------------------------------*\
  =========                 |
  \\      /  F ield         | OpenFOAM: The Open Source CFD Toolbox
   \\    /   O peration     | Website:  https://openfoam.org
    \\  /    A nd           | Version:  6
     \\/     M anipulation  |
\*---------------------------------------------------------------------------*/
FoamFile
{
    version     2.0;
    format      ascii;
    class       dictionary;
    object      fvSolution;
}
// * * * * * * * * * * * * * * * * * * * * * * * * * * * * * * * * * * * * * //
//How to solve the linear system of discrete algebraic equations

solvers
{


    p
    {
        solver           GAMG;
        smoother         GaussSeidel;
        tolerance        1e-7;
        relTol           0.01;
    }
    
    pFinal
    {
        $p;    
        tolerance        1e-7;       
        relTol           0;
    }


    "(U|k|omega)"
    {
        solver          smoothSolver;
        smoother        symGaussSeidel;
        tolerance       1e-05;
        relTol          0.1;
    }
    
    "(U|k|epsilon|omega)Final"
    {
        $U;
        tolerance       1e-05;
        relTol          0;
    }

}


PIMPLE
{
    nNonOrthogonalCorrectors 0;
    nCorrectors              2;

}

relaxationFactors
{
    fields
    {
    p   0.3;
    }
    equations
    {
        "(U|k|omega)"  0.7;
        "(U|k|omega)Final"  1.0;
    }

}


cache
{
    grad(U);
}

// ************************************************************************* //
