/*--------------------------------*- C++ -*----------------------------------*\
  =========                 |
  \\      /  F ield         | OpenFOAM: The Open Source CFD Toolbox
   \\    /   O peration     | Website:  https://openfoam.org
    \\  /    A nd           | Version:  6
     \\/     M anipulation  |
\*---------------------------------------------------------------------------*/
FoamFile
{
    version     2.0;
    format      ascii;
    class       dictionary;
    object      controlDict;
}
// * * * * * * * * * * * * * * * * * * * * * * * * * * * * * * * * * * * * * //

#include "../params"

application     my_pimpleFoam; //steady transient ulenceand incompressible solver

//startFrom     startTime;
//startTime     $ts_start; 

startFrom	latestTime;
stopAt          endTime;
endTime         $ts_end;

deltaT          0.001;

writeControl    timeStep;

writeInterval   10;

purgeWrite      0; 

writeFormat     ascii; //binary;

writePrecision  6;

writeCompression off;

timeFormat      general;

timePrecision   6;

runTimeModifiable yes;
maxCo           5;

libs            (atmosphericModels);
//libs ("libparabolicVelocity.so");
//libs ("libABLFvOptions.so");
//libs("libturbulenceDerivedFvPatchFields.so"); //To use fixedShearStress BC at Top


// ************************************************************************* //
