/*--------------------------------*- C++ -*----------------------------------*\
  =========                 |
  \\      /  F ield         | OpenFOAM: The Open Source CFD Toolbox
   \\    /   O peration     | Website:  https://openfoam.org
    \\  /    A nd           | Version:  6
     \\/     M anipulation  |
\*---------------------------------------------------------------------------*/
FoamFile
{
    version     2.0;
    format      ascii;
    class       dictionary;
    object      controlDict;
}
// * * * * * * * * * * * * * * * * * * * * * * * * * * * * * * * * * * * * * //

application     my_pimpleFoam; //steady transient ulenceand incompressible solver

startFrom       latestTime;

startTime       0; 

stopAt          endTime;

endTime         7;

deltaT          0.01;

writeControl    timeStep;

writeInterval   1;

purgeWrite      0; 

writeFormat     ascii; //binary;

writePrecision  6;

writeCompression off;

timeFormat      general;

timePrecision   6;

runTimeModifiable yes;
maxCo           5;

libs            (atmosphericModels);
//libs ("libparabolicVelocity.so");
//libs ("libABLFvOptions.so");
//libs("libturbulenceDerivedFvPatchFields.so"); //To use fixedShearStress BC at Top


// ************************************************************************* //
